2024_89_CemigReconfigurationCases/1_AlimsCemig/PMSU15/PMSU15Transformadores.dss
new transformer.1038155 Phases=3,Windings=2,Buses=[BMT171890031.1.2.3 BBT103661450.1.2.3.0],Conns=[delta wye],kvs=[13.8 0.22],kvas=[45.000000000 45.000000000],Taps=[1,1.000000000],%loadloss=1.522000000,%noloadloss=0.377777000
new transformer.1054122 Phases=3,Windings=2,Buses=[BMT160955886.1.2.3 BBT118930781.1.2.3.0],Conns=[delta wye],kvs=[13.8 0.22],kvas=[45.000000000 45.000000000],Taps=[1,1.000000000],%loadloss=1.522000000,%noloadloss=0.377777000
new transformer.1425262 Phases=3,Windings=2,Buses=[BMT168338482.1.2.3 BBT156162681.1.2.3.0],Conns=[delta wye],kvs=[13.8 0.22],kvas=[75.000000000 75.000000000],Taps=[1,1.000000000],%loadloss=1.340000000,%noloadloss=0.340000000
new transformer.1426410 Phases=3,Windings=2,Buses=[BMT168406728.1.2.3 BBT156432619.1.2.3.0],Conns=[delta wye],kvs=[13.8 0.22],kvas=[45.000000000 45.000000000],Taps=[1,1.000000000],%loadloss=1.522000000,%noloadloss=0.377777000
new transformer.1426411 Phases=3,Windings=2,Buses=[BMT168406389.1.2.3 BBT156432670.1.2.3.0],Conns=[delta wye],kvs=[13.8 0.22],kvas=[45.000000000 45.000000000],Taps=[1,1.000000000],%loadloss=1.522000000,%noloadloss=0.377777000
new transformer.1426412 Phases=3,Windings=2,Buses=[BMT168406386.1.2.3 BBT156432811.1.2.3.0],Conns=[delta wye],kvs=[13.8 0.22],kvas=[45.000000000 45.000000000],Taps=[1,1.000000000],%loadloss=1.522000000,%noloadloss=0.377777000
new transformer.1426413 Phases=3,Windings=2,Buses=[BMT168406729.1.2.3 BBT156432865.1.2.3.0],Conns=[delta wye],kvs=[13.8 0.22],kvas=[45.000000000 45.000000000],Taps=[1,1.000000000],%loadloss=1.522000000,%noloadloss=0.377777000
new transformer.1435443 Phases=3,Windings=2,Buses=[BMT171373965.1.2.3 BBT158268549.1.2.3.0],Conns=[delta wye],kvs=[13.8 0.22],kvas=[45.000000000 45.000000000],Taps=[1,1.000000000],%loadloss=1.522000000,%noloadloss=0.377777000
new transformer.1435446 Phases=3,Windings=2,Buses=[BMT171373964.1.2.3 BBT158268600.1.2.3.0],Conns=[delta wye],kvs=[13.8 0.22],kvas=[45.000000000 45.000000000],Taps=[1,1.000000000],%loadloss=1.522000000,%noloadloss=0.377777000
new transformer.1435448 Phases=3,Windings=2,Buses=[BMT171373962.1.2.3 BBT158268708.1.2.3.0],Conns=[delta wye],kvs=[13.8 0.22],kvas=[45.000000000 45.000000000],Taps=[1,1.000000000],%loadloss=1.522000000,%noloadloss=0.377777000
new transformer.1435449 Phases=3,Windings=2,Buses=[BMT171373960.1.2.3 BBT158268759.1.2.3.0],Conns=[delta wye],kvs=[13.8 0.22],kvas=[45.000000000 45.000000000],Taps=[1,1.000000000],%loadloss=1.522000000,%noloadloss=0.377777000
new transformer.1435450 Phases=3,Windings=2,Buses=[BMT171373958.1.2.3 BBT158268777.1.2.3.0],Conns=[delta wye],kvs=[13.8 0.22],kvas=[45.000000000 45.000000000],Taps=[1,1.000000000],%loadloss=1.522000000,%noloadloss=0.377777000
new transformer.1435451 Phases=3,Windings=2,Buses=[BMT168406741.1.2.3 BBT158268806.1.2.3.0],Conns=[delta wye],kvs=[13.8 0.22],kvas=[45.000000000 45.000000000],Taps=[1,1.000000000],%loadloss=1.522000000,%noloadloss=0.377777000
new transformer.1435452 Phases=3,Windings=2,Buses=[BMT168406732.1.2.3 BBT158268839.1.2.3.0],Conns=[delta wye],kvs=[13.8 0.22],kvas=[45.000000000 45.000000000],Taps=[1,1.000000000],%loadloss=1.522000000,%noloadloss=0.377777000
new transformer.1435453 Phases=3,Windings=2,Buses=[BMT168406734.1.2.3 BBT158268888.1.2.3.0],Conns=[delta wye],kvs=[13.8 0.22],kvas=[45.000000000 45.000000000],Taps=[1,1.000000000],%loadloss=1.522000000,%noloadloss=0.377777000
new transformer.1435454 Phases=3,Windings=2,Buses=[BMT168406737.1.2.3 BBT158268918.1.2.3.0],Conns=[delta wye],kvs=[13.8 0.22],kvas=[45.000000000 45.000000000],Taps=[1,1.000000000],%loadloss=1.522000000,%noloadloss=0.377777000
new transformer.1435455 Phases=3,Windings=2,Buses=[BMT168406739.1.2.3 BBT158268946.1.2.3.0],Conns=[delta wye],kvs=[13.8 0.22],kvas=[45.000000000 45.000000000],Taps=[1,1.000000000],%loadloss=1.522000000,%noloadloss=0.377777000
new transformer.1435456 Phases=3,Windings=2,Buses=[BMT168406610.1.2.3 BBT158268951.1.2.3.0],Conns=[delta wye],kvs=[13.8 0.22],kvas=[75.000000000 75.000000000],Taps=[1,1.000000000],%loadloss=1.340000000,%noloadloss=0.340000000
new transformer.1435458 Phases=3,Windings=2,Buses=[BMT168406604.1.2.3 BBT158268990.1.2.3.0],Conns=[delta wye],kvs=[13.8 0.22],kvas=[45.000000000 45.000000000],Taps=[1,1.000000000],%loadloss=1.522000000,%noloadloss=0.377777000
new transformer.1435459 Phases=3,Windings=2,Buses=[BMT168406606.1.2.3 BBT158269372.1.2.3.0],Conns=[delta wye],kvs=[13.8 0.22],kvas=[45.000000000 45.000000000],Taps=[1,1.000000000],%loadloss=1.522000000,%noloadloss=0.377777000
new transformer.1435462 Phases=3,Windings=2,Buses=[BMT168406609.1.2.3 BBT158269534.1.2.3.0],Conns=[delta wye],kvs=[13.8 0.22],kvas=[45.000000000 45.000000000],Taps=[1,1.000000000],%loadloss=1.522000000,%noloadloss=0.377777000
new transformer.1435463 Phases=3,Windings=2,Buses=[BMT168406608.1.2.3 BBT158269574.1.2.3.0],Conns=[delta wye],kvs=[13.8 0.22],kvas=[45.000000000 45.000000000],Taps=[1,1.000000000],%loadloss=1.522000000,%noloadloss=0.377777000
new transformer.1435464 Phases=3,Windings=2,Buses=[BMT168406392.1.2.3 BBT158269648.1.2.3.0],Conns=[delta wye],kvs=[13.8 0.22],kvas=[45.000000000 45.000000000],Taps=[1,1.000000000],%loadloss=1.522000000,%noloadloss=0.377777000
new transformer.1443751 Phases=3,Windings=2,Buses=[BMT170103057.1.2.3 BBT159945222.1.2.3.0],Conns=[delta wye],kvs=[13.8 0.22],kvas=[45.000000000 45.000000000],Taps=[1,1.000000000],%loadloss=1.522000000,%noloadloss=0.377777000
new transformer.1446203 Phases=3,Windings=2,Buses=[BMT160881659.1.2.3 BBT160785643.1.2.3.0],Conns=[delta wye],kvs=[13.8 0.22],kvas=[45.000000000 45.000000000],Taps=[1,1.000000000],%loadloss=1.522000000,%noloadloss=0.377777000
new transformer.1481172 Phases=3,Windings=2,Buses=[BMT168338481.1.2.3 BBT168338483.1.2.3.0],Conns=[delta wye],kvs=[13.8 0.22],kvas=[45.000000000 45.000000000],Taps=[1,1.000000000],%loadloss=1.522000000,%noloadloss=0.377777000
new transformer.1481334 Phases=3,Windings=2,Buses=[BMT169460880.1.2.3 BBT168373160.1.2.3.0],Conns=[delta wye],kvs=[13.8 0.22],kvas=[75.000000000 75.000000000],Taps=[1,1.000000000],%loadloss=1.340000000,%noloadloss=0.340000000
new transformer.1499605 Phases=3,Windings=2,Buses=[BMT171890027.1.2.3 BBT171890032.1.2.3.0],Conns=[delta wye],kvs=[13.8 0.22],kvas=[45.000000000 45.000000000],Taps=[1,1.000000000],%loadloss=1.522000000,%noloadloss=0.377777000
new transformer.1066274 Phases=3,Windings=2,Buses=[BMT157310545.1.2.3 BBT131635326.1.2.3.0],Conns=[delta wye],kvs=[13.8 0.22],kvas=[30.000000000 30.000000000],Taps=[1,1.000000000],%loadloss=1.667000000,%noloadloss=0.433333000
new transformer.1390282 Phases=3,Windings=2,Buses=[BMT173262307.1.2.3 BBT148080937.1.2.3.0],Conns=[delta wye],kvs=[13.8 0.22],kvas=[75.000000000 75.000000000],Taps=[1,1.000000000],%loadloss=1.340000000,%noloadloss=0.340000000
new transformer.1390663 Phases=3,Windings=2,Buses=[BMT151769086.1.2.3 BBT148198410.1.2.3.0],Conns=[delta wye],kvs=[13.8 0.22],kvas=[45.000000000 45.000000000],Taps=[1,1.000000000],%loadloss=1.522000000,%noloadloss=0.377777000
new transformer.1390670 Phases=3,Windings=2,Buses=[BMT151769085.1.2.3 BBT148199353.1.2.3.0],Conns=[delta wye],kvs=[13.8 0.22],kvas=[45.000000000 45.000000000],Taps=[1,1.000000000],%loadloss=1.522000000,%noloadloss=0.377777000
new transformer.1390683 Phases=3,Windings=2,Buses=[BMT167393302.1.2.3 BBT148201448.1.2.3.0],Conns=[delta wye],kvs=[13.8 0.22],kvas=[45.000000000 45.000000000],Taps=[1,1.000000000],%loadloss=1.522000000,%noloadloss=0.377777000
new transformer.1390691 Phases=3,Windings=2,Buses=[BMT167392840.1.2.3 BBT148203527.1.2.3.0],Conns=[delta wye],kvs=[13.8 0.22],kvas=[45.000000000 45.000000000],Taps=[1,1.000000000],%loadloss=1.522000000,%noloadloss=0.377777000
new transformer.1390698 Phases=3,Windings=2,Buses=[BMT167392838.1.2.3 BBT148205205.1.2.3.0],Conns=[delta wye],kvs=[13.8 0.22],kvas=[45.000000000 45.000000000],Taps=[1,1.000000000],%loadloss=1.522000000,%noloadloss=0.377777000
new transformer.1390710 Phases=3,Windings=2,Buses=[BMT171371754.1.2.3 BBT148207477.1.2.3.0],Conns=[delta wye],kvs=[13.8 0.22],kvas=[45.000000000 45.000000000],Taps=[1,1.000000000],%loadloss=1.522000000,%noloadloss=0.377777000
new transformer.1390774 Phases=3,Windings=2,Buses=[BMT171371755.1.2.3 BBT148216518.1.2.3.0],Conns=[delta wye],kvs=[13.8 0.22],kvas=[45.000000000 45.000000000],Taps=[1,1.000000000],%loadloss=1.522000000,%noloadloss=0.377777000
new transformer.1390775 Phases=3,Windings=2,Buses=[BMT171372027.1.2.3 BBT148216551.1.2.3.0],Conns=[delta wye],kvs=[13.8 0.22],kvas=[45.000000000 45.000000000],Taps=[1,1.000000000],%loadloss=1.522000000,%noloadloss=0.377777000
new transformer.1393282 Phases=3,Windings=2,Buses=[BMT148791812.1.2.3 BBT148791817.1.2.3.0],Conns=[delta wye],kvs=[13.8 0.22],kvas=[45.000000000 45.000000000],Taps=[1,1.000000000],%loadloss=1.522000000,%noloadloss=0.377777000
new transformer.1408331 Phases=3,Windings=2,Buses=[BMT160955887.1.2.3 BBT152456389.1.2.3.0],Conns=[delta wye],kvs=[13.8 0.22],kvas=[75.000000000 75.000000000],Taps=[1,1.000000000],%loadloss=1.340000000,%noloadloss=0.340000000
new transformer.1422012 Phases=3,Windings=2,Buses=[BMT170103055.1.2.3 BBT155550942.1.2.3.0],Conns=[delta wye],kvs=[13.8 0.22],kvas=[45.000000000 45.000000000],Taps=[1,1.000000000],%loadloss=1.522000000,%noloadloss=0.377777000
new transformer.1440083 Phases=3,Windings=2,Buses=[BMT168238261.1.2.3 BBT159194244.1.2.3.0],Conns=[delta wye],kvs=[13.8 0.22],kvas=[45.000000000 45.000000000],Taps=[1,1.000000000],%loadloss=1.522000000,%noloadloss=0.377777000
new transformer.1442359 Phases=3,Windings=2,Buses=[BMT168238259.1.2.3 BBT159649067.1.2.3.0],Conns=[delta wye],kvs=[13.8 0.22],kvas=[45.000000000 45.000000000],Taps=[1,1.000000000],%loadloss=1.522000000,%noloadloss=0.377777000
new transformer.1461548 Phases=3,Windings=2,Buses=[BMT169460875.1.2.3 BBT164654807.1.2.3.0],Conns=[delta wye],kvs=[13.8 0.22],kvas=[45.000000000 45.000000000],Taps=[1,1.000000000],%loadloss=1.522000000,%noloadloss=0.377777000
new transformer.1479516 Phases=3,Windings=2,Buses=[BMT168306649.1.2.3 BBT168050179.1.2.3.0],Conns=[delta wye],kvs=[13.8 0.22],kvas=[45.000000000 45.000000000],Taps=[1,1.000000000],%loadloss=1.522000000,%noloadloss=0.377777000
new transformer.1487178 Phases=3,Windings=2,Buses=[BMT169388306.1.2.3 BBT169388318.1.2.3.0],Conns=[delta wye],kvs=[13.8 0.22],kvas=[45.000000000 45.000000000],Taps=[1,1.000000000],%loadloss=1.522000000,%noloadloss=0.377777000
new transformer.294151 Phases=3,Windings=2,Buses=[BMT161322117.1.2.3 BBT1383729.1.2.3.0],Conns=[delta wye],kvs=[13.8 0.22],kvas=[75.000000000 75.000000000],Taps=[1,1.000000000],%loadloss=1.340000000,%noloadloss=0.340000000
new transformer.294165 Phases=3,Windings=2,Buses=[BMT149134570.1.2.3 BBT1383953.1.2.3.0],Conns=[delta wye],kvs=[13.8 0.22],kvas=[75.000000000 75.000000000],Taps=[1,1.000000000],%loadloss=1.340000000,%noloadloss=0.340000000
new transformer.294228 Phases=3,Windings=2,Buses=[BMT123952854.1.2.3 BBT1385374.1.2.3.0],Conns=[delta wye],kvs=[13.8 0.22],kvas=[100.000000000 100.000000000],Taps=[1,1.000000000],%loadloss=1.218000000,%noloadloss=0.335000000
new transformer.294277 Phases=3,Windings=2,Buses=[BMT123952917.1.2.3 BBT1386291.1.2.3.0],Conns=[delta wye],kvs=[13.8 0.22],kvas=[75.000000000 75.000000000],Taps=[1,1.000000000],%loadloss=1.340000000,%noloadloss=0.340000000
new transformer.294361 Phases=3,Windings=2,Buses=[BMT149109706.1.2.3 BBT1387747.1.2.3.0],Conns=[delta wye],kvs=[13.8 0.22],kvas=[75.000000000 75.000000000],Taps=[1,1.000000000],%loadloss=1.340000000,%noloadloss=0.340000000
new transformer.294438 Phases=3,Windings=2,Buses=[BMT169068094.1.2.3 BBT1388993.1.2.3.0],Conns=[delta wye],kvs=[13.8 0.22],kvas=[100.000000000 100.000000000],Taps=[1,1.000000000],%loadloss=1.218000000,%noloadloss=0.335000000
new transformer.294466 Phases=3,Windings=2,Buses=[BMT169068095.1.2.3 BBT1389420.1.2.3.0],Conns=[delta wye],kvs=[13.8 0.22],kvas=[100.000000000 100.000000000],Taps=[1,1.000000000],%loadloss=1.218000000,%noloadloss=0.335000000
new transformer.294487 Phases=3,Windings=2,Buses=[BMT161322122.1.2.3 BBT1389938.1.2.3.0],Conns=[delta wye],kvs=[13.8 0.22],kvas=[150.000000000 150.000000000],Taps=[1,1.000000000],%loadloss=1.127000000,%noloadloss=0.280000000
new transformer.294508 Phases=3,Windings=2,Buses=[BMT161322118.1.2.3 BBT1390253.1.2.3.0],Conns=[delta wye],kvs=[13.8 0.22],kvas=[75.000000000 75.000000000],Taps=[1,1.000000000],%loadloss=1.340000000,%noloadloss=0.340000000
new transformer.294543 Phases=3,Windings=2,Buses=[BMT149109712.1.2.3 BBT1390904.1.2.3.0],Conns=[delta wye],kvs=[13.8 0.22],kvas=[75.000000000 75.000000000],Taps=[1,1.000000000],%loadloss=1.340000000,%noloadloss=0.340000000
new transformer.294592 Phases=3,Windings=2,Buses=[BMT159147114.1.2.3 BBT1391828.1.2.3.0],Conns=[delta wye],kvs=[13.8 0.22],kvas=[75.000000000 75.000000000],Taps=[1,1.000000000],%loadloss=1.340000000,%noloadloss=0.340000000
new transformer.294704 Phases=3,Windings=2,Buses=[BMT149109709.1.2.3 BBT1393466.1.2.3.0],Conns=[delta wye],kvs=[13.8 0.22],kvas=[75.000000000 75.000000000],Taps=[1,1.000000000],%loadloss=1.340000000,%noloadloss=0.340000000
new transformer.1092174 Phases=3,Windings=2,Buses=[BMT169460879.1.2.3 BBT139603321.1.2.3.0],Conns=[delta wye],kvs=[13.8 0.22],kvas=[45.000000000 45.000000000],Taps=[1,1.000000000],%loadloss=1.522000000,%noloadloss=0.377777000
new transformer.1092181 Phases=3,Windings=2,Buses=[BMT169460877.1.2.3 BBT139604350.1.2.3.0],Conns=[delta wye],kvs=[13.8 0.22],kvas=[45.000000000 45.000000000],Taps=[1,1.000000000],%loadloss=1.522000000,%noloadloss=0.377777000
new transformer.1103528 Phases=3,Windings=2,Buses=[BMT169068098.1.2.3 BBT142528124.1.2.3.0],Conns=[delta wye],kvs=[13.8 0.22],kvas=[45.000000000 45.000000000],Taps=[1,1.000000000],%loadloss=1.522000000,%noloadloss=0.377777000
new transformer.1103647 Phases=3,Windings=2,Buses=[BMT161322134.1.2.3 BBT142552022.1.2.3.0],Conns=[delta wye],kvs=[13.8 0.22],kvas=[75.000000000 75.000000000],Taps=[1,1.000000000],%loadloss=1.340000000,%noloadloss=0.340000000
new transformer.1105110 Phases=3,Windings=2,Buses=[BMT169067997.1.2.3 BBT142946696.1.2.3.0],Conns=[delta wye],kvs=[13.8 0.22],kvas=[30.000000000 30.000000000],Taps=[1,1.000000000],%loadloss=1.667000000,%noloadloss=0.433333000
new transformer.1426178 Phases=3,Windings=2,Buses=[BMT171371757.1.2.3 BBT156381228.1.2.3.0],Conns=[delta wye],kvs=[13.8 0.22],kvas=[75.000000000 75.000000000],Taps=[1,1.000000000],%loadloss=1.340000000,%noloadloss=0.340000000
new transformer.1426180 Phases=3,Windings=2,Buses=[BMT171371758.1.2.3 BBT156381408.1.2.3.0],Conns=[delta wye],kvs=[13.8 0.22],kvas=[45.000000000 45.000000000],Taps=[1,1.000000000],%loadloss=1.522000000,%noloadloss=0.377777000
new transformer.1426360 Phases=3,Windings=2,Buses=[BMT171371759.1.2.3 BBT156422119.1.2.3.0],Conns=[delta wye],kvs=[13.8 0.22],kvas=[75.000000000 75.000000000],Taps=[1,1.000000000],%loadloss=1.340000000,%noloadloss=0.340000000
new transformer.1426386 Phases=3,Windings=2,Buses=[BMT168406727.1.2.3 BBT156425595.1.2.3.0],Conns=[delta wye],kvs=[13.8 0.22],kvas=[45.000000000 45.000000000],Taps=[1,1.000000000],%loadloss=1.522000000,%noloadloss=0.377777000
new transformer.1442759 Phases=3,Windings=2,Buses=[BMT171988374.1.2.3 BBT159724376.1.2.3.0],Conns=[delta wye],kvs=[13.8 0.22],kvas=[45.000000000 45.000000000],Taps=[1,1.000000000],%loadloss=1.522000000,%noloadloss=0.377777000
new transformer.1493950 Phases=3,Windings=2,Buses=[BMT170753818.1.2.3 BBT170753704.1.2.3.0],Conns=[delta wye],kvs=[13.8 0.22],kvas=[45.000000000 45.000000000],Taps=[1,1.000000000],%loadloss=1.522000000,%noloadloss=0.377777000
new transformer.1498116 Phases=3,Windings=2,Buses=[BMT171988375.1.2.3 BBT171613671.1.2.3.0],Conns=[delta wye],kvs=[13.8 0.22],kvas=[250.000000000 250.000000000],Taps=[1,1.000000000],%loadloss=0.990000000,%noloadloss=0.280000000
new transformer.294900 Phases=3,Windings=2,Buses=[BMT161322126.1.2.3 BBT1396483.1.2.3.0],Conns=[delta wye],kvs=[13.8 0.22],kvas=[75.000000000 75.000000000],Taps=[1,1.000000000],%loadloss=1.340000000,%noloadloss=0.340000000
new transformer.294949 Phases=3,Windings=2,Buses=[BMT167342292.1.2.3 BBT1397190.1.2.3.0],Conns=[delta wye],kvs=[13.8 0.22],kvas=[75.000000000 75.000000000],Taps=[1,1.000000000],%loadloss=1.340000000,%noloadloss=0.340000000
new transformer.294977 Phases=3,Windings=2,Buses=[BMT159369760.1.2.3 BBT1397505.1.2.3.0],Conns=[delta wye],kvs=[13.8 0.22],kvas=[75.000000000 75.000000000],Taps=[1,1.000000000],%loadloss=1.340000000,%noloadloss=0.340000000
new transformer.295012 Phases=3,Windings=2,Buses=[BMT161322132.1.2.3 BBT1398205.1.2.3.0],Conns=[delta wye],kvs=[13.8 0.22],kvas=[75.000000000 75.000000000],Taps=[1,1.000000000],%loadloss=1.340000000,%noloadloss=0.340000000
new transformer.295019 Phases=3,Windings=2,Buses=[BMT167342299.1.2.3 BBT1398296.1.2.3.0],Conns=[delta wye],kvs=[13.8 0.22],kvas=[75.000000000 75.000000000],Taps=[1,1.000000000],%loadloss=1.340000000,%noloadloss=0.340000000
new transformer.295040 Phases=3,Windings=2,Buses=[BMT161322125.1.2.3 BBT1398478.1.2.3.0],Conns=[delta wye],kvs=[13.8 0.22],kvas=[75.000000000 75.000000000],Taps=[1,1.000000000],%loadloss=1.340000000,%noloadloss=0.340000000
new transformer.295068 Phases=1,Windings=3,Buses=[BMT152087473.2 BBT1398940.1.0 BBT1398940.0.2],Conns=[wye wye wye],kvs=[7.967 0.12 0.12],kvas=[10.000000000 10.000000000 10.000000000],Taps=[1,1.000000000,1.000000000],%loadloss=1.800000000,%noloadloss=0.450000000
new transformer.295173 Phases=3,Windings=2,Buses=[BMT159369761.1.2.3 BBT1400193.1.2.3.0],Conns=[delta wye],kvs=[13.8 0.22],kvas=[75.000000000 75.000000000],Taps=[1,1.000000000],%loadloss=1.340000000,%noloadloss=0.340000000
new transformer.295390 Phases=3,Windings=2,Buses=[BMT123995274.1.2.3 BBT1402923.1.2.3.0],Conns=[delta wye],kvs=[13.8 0.22],kvas=[30.000000000 30.000000000],Taps=[1,1.000000000],%loadloss=1.667000000,%noloadloss=0.433333000
new transformer.295397 Phases=3,Windings=2,Buses=[BMT123995288.1.2.3 BBT1403035.1.2.3.0],Conns=[delta wye],kvs=[13.8 0.22],kvas=[75.000000000 75.000000000],Taps=[1,1.000000000],%loadloss=1.340000000,%noloadloss=0.340000000
new transformer.295425 Phases=3,Windings=2,Buses=[BMT156691992.1.2.3 BBT1403357.1.2.3.0],Conns=[delta wye],kvs=[13.8 0.22],kvas=[100.000000000 100.000000000],Taps=[1,1.000000000],%loadloss=1.218000000,%noloadloss=0.335000000
new transformer.295432 Phases=3,Windings=2,Buses=[BMT156691990.1.2.3 BBT1403420.1.2.3.0],Conns=[delta wye],kvs=[13.8 0.22],kvas=[75.000000000 75.000000000],Taps=[1,1.000000000],%loadloss=1.340000000,%noloadloss=0.340000000
new transformer.295460 Phases=3,Windings=2,Buses=[BMT123995281.1.2.3 BBT1403728.1.2.3.0],Conns=[delta wye],kvs=[13.8 0.22],kvas=[15.000000000 15.000000000],Taps=[1,1.000000000],%loadloss=1.967000000,%noloadloss=0.500000000
new transformer.295467 Phases=3,Windings=2,Buses=[BMT156691986.1.2.3 BBT1403742.1.2.3.0],Conns=[delta wye],kvs=[13.8 0.22],kvas=[30.000000000 30.000000000],Taps=[1,1.000000000],%loadloss=1.667000000,%noloadloss=0.433333000
new transformer.1041816 Phases=3,Windings=2,Buses=[BMT170753819.1.2.3 BBT106551645.1.2.3.0],Conns=[delta wye],kvs=[13.8 0.22],kvas=[45.000000000 45.000000000],Taps=[1,1.000000000],%loadloss=1.522000000,%noloadloss=0.377777000
new transformer.1041830 Phases=3,Windings=2,Buses=[BMT168306648.1.2.3 BBT106555572.1.2.3.0],Conns=[delta wye],kvs=[13.8 0.22],kvas=[75.000000000 75.000000000],Taps=[1,1.000000000],%loadloss=1.340000000,%noloadloss=0.340000000
new transformer.1041844 Phases=3,Windings=2,Buses=[BMT170753820.1.2.3 BBT106588850.1.2.3.0],Conns=[delta wye],kvs=[13.8 0.22],kvas=[45.000000000 45.000000000],Taps=[1,1.000000000],%loadloss=1.522000000,%noloadloss=0.377777000
new transformer.1062697 Phases=3,Windings=2,Buses=[BMT129999853.1.2.3 BBT129999307.1.2.3.0],Conns=[delta wye],kvs=[13.8 0.22],kvas=[75.000000000 75.000000000],Taps=[1,1.000000000],%loadloss=1.340000000,%noloadloss=0.340000000
new transformer.1089549 Phases=3,Windings=2,Buses=[BMT169388305.1.2.3 BBT138736749.1.2.3.0],Conns=[delta wye],kvs=[13.8 0.22],kvas=[75.000000000 75.000000000],Taps=[1,1.000000000],%loadloss=1.340000000,%noloadloss=0.340000000
new transformer.1102464 Phases=3,Windings=2,Buses=[BMT168238256.1.2.3 BBT142223568.1.2.3.0],Conns=[delta wye],kvs=[13.8 0.22],kvas=[45.000000000 45.000000000],Taps=[1,1.000000000],%loadloss=1.522000000,%noloadloss=0.377777000
new transformer.1108666 Phases=3,Windings=2,Buses=[BMT168238262.1.2.3 BBT143923770.1.2.3.0],Conns=[delta wye],kvs=[13.8 0.22],kvas=[75.000000000 75.000000000],Taps=[1,1.000000000],%loadloss=1.340000000,%noloadloss=0.340000000
new transformer.1394270 Phases=3,Windings=2,Buses=[BMT149134573.1.2.3 BBT149033403.1.2.3.0],Conns=[delta wye],kvs=[13.8 0.22],kvas=[75.000000000 75.000000000],Taps=[1,1.000000000],%loadloss=1.340000000,%noloadloss=0.340000000
new transformer.1397299 Phases=3,Windings=2,Buses=[BMT173262309.1.2.3 BBT149746515.1.2.3.0],Conns=[delta wye],kvs=[13.8 0.22],kvas=[75.000000000 75.000000000],Taps=[1,1.000000000],%loadloss=1.340000000,%noloadloss=0.340000000
new transformer.1419739 Phases=3,Windings=2,Buses=[BMT165172826.1.2.3 BBT155010560.1.2.3.0],Conns=[delta wye],kvs=[13.8 0.22],kvas=[45.000000000 45.000000000],Taps=[1,1.000000000],%loadloss=1.522000000,%noloadloss=0.377777000
new transformer.1419742 Phases=3,Windings=2,Buses=[BMT165172824.1.2.3 BBT155010765.1.2.3.0],Conns=[delta wye],kvs=[13.8 0.22],kvas=[45.000000000 45.000000000],Taps=[1,1.000000000],%loadloss=1.522000000,%noloadloss=0.377777000
new transformer.1419744 Phases=3,Windings=2,Buses=[BMT165172827.1.2.3 BBT155011389.1.2.3.0],Conns=[delta wye],kvs=[13.8 0.22],kvas=[45.000000000 45.000000000],Taps=[1,1.000000000],%loadloss=1.522000000,%noloadloss=0.377777000
new transformer.1428750 Phases=3,Windings=2,Buses=[BMT157310539.1.2.3 BBT156945052.1.2.3.0],Conns=[delta wye],kvs=[13.8 0.22],kvas=[45.000000000 45.000000000],Taps=[1,1.000000000],%loadloss=1.522000000,%noloadloss=0.377777000
new transformer.1448634 Phases=3,Windings=2,Buses=[BMT161358103.1.2.3 BBT161352434.1.2.3.0],Conns=[delta wye],kvs=[13.8 0.22],kvas=[45.000000000 45.000000000],Taps=[1,1.000000000],%loadloss=1.522000000,%noloadloss=0.377777000
new transformer.1448635 Phases=3,Windings=2,Buses=[BMT161358102.1.2.3 BBT161352471.1.2.3.0],Conns=[delta wye],kvs=[13.8 0.22],kvas=[45.000000000 45.000000000],Taps=[1,1.000000000],%loadloss=1.522000000,%noloadloss=0.377777000
new transformer.1448649 Phases=3,Windings=2,Buses=[BMT161357587.1.2.3 BBT161356149.1.2.3.0],Conns=[delta wye],kvs=[13.8 0.22],kvas=[45.000000000 45.000000000],Taps=[1,1.000000000],%loadloss=1.522000000,%noloadloss=0.377777000
new transformer.1504892 Phases=1,Windings=3,Buses=[BMT173112967.1 BBT173112944.1.0 BBT173112944.0.2],Conns=[wye wye wye],kvs=[7.967 0.12 0.12],kvas=[35.000000000 35.000000000 35.000000000],Taps=[1,1.000000000,1.000000000],%loadloss=1.293000000,%noloadloss=0.342857000
new transformer.293493 Phases=3,Windings=2,Buses=[BMT158526643.1.2.3 BBT1372298.1.2.3.0],Conns=[delta wye],kvs=[13.8 0.22],kvas=[75.000000000 75.000000000],Taps=[1,1.000000000],%loadloss=1.340000000,%noloadloss=0.340000000
new transformer.293850 Phases=3,Windings=2,Buses=[BMT123952875.1.2.3 BBT1378535.1.2.3.0],Conns=[delta wye],kvs=[13.8 0.22],kvas=[75.000000000 75.000000000],Taps=[1,1.000000000],%loadloss=1.340000000,%noloadloss=0.340000000
new transformer.293857 Phases=3,Windings=2,Buses=[BMT149134571.1.2.3 BBT1378570.1.2.3.0],Conns=[delta wye],kvs=[13.8 0.22],kvas=[75.000000000 75.000000000],Taps=[1,1.000000000],%loadloss=1.340000000,%noloadloss=0.340000000
new transformer.293864 Phases=3,Windings=2,Buses=[BMT123952882.1.2.3 BBT1378633.1.2.3.0],Conns=[delta wye],kvs=[13.8 0.22],kvas=[75.000000000 75.000000000],Taps=[1,1.000000000],%loadloss=1.340000000,%noloadloss=0.340000000
new transformer.293948 Phases=3,Windings=2,Buses=[BMT123952847.1.2.3 BBT1380201.1.2.3.0],Conns=[delta wye],kvs=[13.8 0.22],kvas=[100.000000000 100.000000000],Taps=[1,1.000000000],%loadloss=1.218000000,%noloadloss=0.335000000
new transformer.293983 Phases=3,Windings=2,Buses=[BMT123952861.1.2.3 BBT1380887.1.2.3.0],Conns=[delta wye],kvs=[13.8 0.22],kvas=[75.000000000 75.000000000],Taps=[1,1.000000000],%loadloss=1.340000000,%noloadloss=0.340000000
new transformer.294046 Phases=3,Windings=2,Buses=[BMT149109681.1.2.3 BBT1381748.1.2.3.0],Conns=[delta wye],kvs=[13.8 0.22],kvas=[75.000000000 75.000000000],Taps=[1,1.000000000],%loadloss=1.340000000,%noloadloss=0.340000000
new transformer.294109 Phases=3,Windings=2,Buses=[BMT123952910.1.2.3 BBT1382938.1.2.3.0],Conns=[delta wye],kvs=[13.8 0.22],kvas=[75.000000000 75.000000000],Taps=[1,1.000000000],%loadloss=1.340000000,%noloadloss=0.340000000
new transformer.296916 Phases=3,Windings=2,Buses=[BMT168238242.1.2.3 BBT1423076.1.2.3.0],Conns=[delta wye],kvs=[13.8 0.22],kvas=[45.000000000 45.000000000],Taps=[1,1.000000000],%loadloss=1.522000000,%noloadloss=0.377777000
new transformer.296951 Phases=3,Windings=2,Buses=[BMT168238241.1.2.3 BBT1423664.1.2.3.0],Conns=[delta wye],kvs=[13.8 0.22],kvas=[45.000000000 45.000000000],Taps=[1,1.000000000],%loadloss=1.522000000,%noloadloss=0.377777000
new transformer.297014 Phases=3,Windings=2,Buses=[BMT164170172.1.2.3 BBT1424588.1.2.3.0],Conns=[delta wye],kvs=[13.8 0.22],kvas=[75.000000000 75.000000000],Taps=[1,1.000000000],%loadloss=1.340000000,%noloadloss=0.340000000
new transformer.294739 Phases=3,Windings=2,Buses=[BMT161322120.1.2.3 BBT1393984.1.2.3.0],Conns=[delta wye],kvs=[13.8 0.22],kvas=[45.000000000 45.000000000],Taps=[1,1.000000000],%loadloss=1.522000000,%noloadloss=0.377777000
new transformer.294746 Phases=3,Windings=2,Buses=[BMT159147115.1.2.3 BBT1394012.1.2.3.0],Conns=[delta wye],kvs=[13.8 0.22],kvas=[75.000000000 75.000000000],Taps=[1,1.000000000],%loadloss=1.340000000,%noloadloss=0.340000000
new transformer.294816 Phases=3,Windings=2,Buses=[BMT161322128.1.2.3 BBT1395251.1.2.3.0],Conns=[delta wye],kvs=[13.8 0.22],kvas=[75.000000000 75.000000000],Taps=[1,1.000000000],%loadloss=1.340000000,%noloadloss=0.340000000
new transformer.296321 Phases=3,Windings=2,Buses=[BMT171628482.1.2.3 BBT1414480.1.2.3.0],Conns=[delta wye],kvs=[13.8 0.22],kvas=[45.000000000 45.000000000],Taps=[1,1.000000000],%loadloss=1.522000000,%noloadloss=0.377777000
new transformer.296342 Phases=3,Windings=2,Buses=[BMT171890019.1.2.3 BBT1414830.1.2.3.0],Conns=[delta wye],kvs=[13.8 0.22],kvas=[45.000000000 45.000000000],Taps=[1,1.000000000],%loadloss=1.522000000,%noloadloss=0.377777000
new transformer.296503 Phases=3,Windings=2,Buses=[BMT170103054.1.2.3 BBT1417056.1.2.3.0],Conns=[delta wye],kvs=[13.8 0.22],kvas=[45.000000000 45.000000000],Taps=[1,1.000000000],%loadloss=1.522000000,%noloadloss=0.377777000
new transformer.296531 Phases=3,Windings=2,Buses=[BMT171890017.1.2.3 BBT1417532.1.2.3.0],Conns=[delta wye],kvs=[13.8 0.22],kvas=[45.000000000 45.000000000],Taps=[1,1.000000000],%loadloss=1.522000000,%noloadloss=0.377777000
new transformer.296566 Phases=3,Windings=2,Buses=[BMT169919375.1.2.3 BBT1418092.1.2.3.0],Conns=[delta wye],kvs=[13.8 0.22],kvas=[75.000000000 75.000000000],Taps=[1,1.000000000],%loadloss=1.340000000,%noloadloss=0.340000000
new transformer.296608 Phases=3,Windings=2,Buses=[BMT171890016.1.2.3 BBT1418757.1.2.3.0],Conns=[delta wye],kvs=[13.8 0.22],kvas=[45.000000000 45.000000000],Taps=[1,1.000000000],%loadloss=1.522000000,%noloadloss=0.377777000
new transformer.296643 Phases=3,Windings=2,Buses=[BMT171628479.1.2.3 BBT1419303.1.2.3.0],Conns=[delta wye],kvs=[13.8 0.22],kvas=[45.000000000 45.000000000],Taps=[1,1.000000000],%loadloss=1.522000000,%noloadloss=0.377777000
new transformer.296657 Phases=3,Windings=2,Buses=[BMT168238263.1.2.3 BBT1419478.1.2.3.0],Conns=[delta wye],kvs=[13.8 0.22],kvas=[30.000000000 30.000000000],Taps=[1,1.000000000],%loadloss=1.667000000,%noloadloss=0.433333000
new transformer.296706 Phases=3,Windings=2,Buses=[BMT168238260.1.2.3 BBT1419982.1.2.3.0],Conns=[delta wye],kvs=[13.8 0.22],kvas=[45.000000000 45.000000000],Taps=[1,1.000000000],%loadloss=1.522000000,%noloadloss=0.377777000
new transformer.296727 Phases=3,Windings=2,Buses=[BMT171890014.1.2.3 BBT1420374.1.2.3.0],Conns=[delta wye],kvs=[13.8 0.22],kvas=[75.000000000 75.000000000],Taps=[1,1.000000000],%loadloss=1.340000000,%noloadloss=0.340000000
new transformer.296741 Phases=3,Windings=2,Buses=[BMT168238249.1.2.3 BBT1420493.1.2.3.0],Conns=[delta wye],kvs=[13.8 0.22],kvas=[45.000000000 45.000000000],Taps=[1,1.000000000],%loadloss=1.522000000,%noloadloss=0.377777000
new transformer.296797 Phases=3,Windings=2,Buses=[BMT168238244.1.2.3 BBT1421431.1.2.3.0],Conns=[delta wye],kvs=[13.8 0.22],kvas=[45.000000000 45.000000000],Taps=[1,1.000000000],%loadloss=1.522000000,%noloadloss=0.377777000
new transformer.296867 Phases=3,Windings=2,Buses=[BMT168238245.1.2.3 BBT1422355.1.2.3.0],Conns=[delta wye],kvs=[13.8 0.22],kvas=[45.000000000 45.000000000],Taps=[1,1.000000000],%loadloss=1.522000000,%noloadloss=0.377777000
new transformer.298253 Phases=1,Windings=3,Buses=[BMT168406744.2 BBT1442242.1.0 BBT1442242.0.2],Conns=[wye wye wye],kvs=[7.967 0.12 0.12],kvas=[15.000000000 15.000000000 15.000000000],Taps=[1,1.000000000,1.000000000],%loadloss=1.600000000,%noloadloss=0.400000000
new transformer.298365 Phases=3,Windings=2,Buses=[BMT161357585.1.2.3 BBT1443810.1.2.3.0],Conns=[delta wye],kvs=[13.8 0.22],kvas=[30.000000000 30.000000000],Taps=[1,1.000000000],%loadloss=1.667000000,%noloadloss=0.433333000
new transformer.298393 Phases=1,Windings=3,Buses=[BMT157310553.2 BBT1444076.1.0 BBT1444076.0.2],Conns=[wye wye wye],kvs=[7.967 0.12 0.12],kvas=[35.000000000 35.000000000 35.000000000],Taps=[1,1.000000000,1.000000000],%loadloss=1.293000000,%noloadloss=0.342857000
new transformer.298400 Phases=3,Windings=2,Buses=[BMT171989507.1.2.3 BBT1444090.1.2.3.0],Conns=[delta wye],kvs=[13.8 0.22],kvas=[30.000000000 30.000000000],Taps=[1,1.000000000],%loadloss=1.667000000,%noloadloss=0.433333000
new transformer.298428 Phases=3,Windings=2,Buses=[BMT170604806.1.2.3 BBT1444440.1.2.3.0],Conns=[delta wye],kvs=[13.8 0.22],kvas=[45.000000000 45.000000000],Taps=[1,1.000000000],%loadloss=1.522000000,%noloadloss=0.377777000
new transformer.298435 Phases=3,Windings=2,Buses=[BMT165172778.1.2.3 BBT1444531.1.2.3.0],Conns=[delta wye],kvs=[13.8 0.22],kvas=[75.000000000 75.000000000],Taps=[1,1.000000000],%loadloss=1.340000000,%noloadloss=0.340000000
new transformer.298456 Phases=3,Windings=2,Buses=[BMT161357584.1.2.3 BBT1444839.1.2.3.0],Conns=[delta wye],kvs=[13.8 0.22],kvas=[45.000000000 45.000000000],Taps=[1,1.000000000],%loadloss=1.522000000,%noloadloss=0.377777000
new transformer.298484 Phases=3,Windings=2,Buses=[BMT157310548.1.2.3 BBT1445371.1.2.3.0],Conns=[delta wye],kvs=[13.8 0.22],kvas=[45.000000000 45.000000000],Taps=[1,1.000000000],%loadloss=1.522000000,%noloadloss=0.377777000
new transformer.298491 Phases=3,Windings=2,Buses=[BMT168703065.1.2.3 BBT1445476.1.2.3.0],Conns=[delta wye],kvs=[13.8 0.22],kvas=[45.000000000 45.000000000],Taps=[1,1.000000000],%loadloss=1.522000000,%noloadloss=0.377777000
new transformer.298526 Phases=3,Windings=2,Buses=[BMT157310550.1.2.3 BBT1445644.1.2.3.0],Conns=[delta wye],kvs=[13.8 0.22],kvas=[45.000000000 45.000000000],Taps=[1,1.000000000],%loadloss=1.522000000,%noloadloss=0.377777000
new transformer.298575 Phases=3,Windings=2,Buses=[BMT157310547.1.2.3 BBT1446582.1.2.3.0],Conns=[delta wye],kvs=[13.8 0.22],kvas=[30.000000000 30.000000000],Taps=[1,1.000000000],%loadloss=1.667000000,%noloadloss=0.433333000
new transformer.298617 Phases=3,Windings=2,Buses=[BMT170604805.1.2.3 BBT1447163.1.2.3.0],Conns=[delta wye],kvs=[13.8 0.22],kvas=[45.000000000 45.000000000],Taps=[1,1.000000000],%loadloss=1.522000000,%noloadloss=0.377777000
new transformer.1499695 Phases=3,Windings=2,Buses=[BMT172381367.1.2.3 BBT171903627.1.2.3.0],Conns=[delta wye],kvs=[13.8 0.22],kvas=[45.000000000 45.000000000],Taps=[1,1.000000000],%loadloss=1.522000000,%noloadloss=0.377777000
new transformer.295558 Phases=3,Windings=2,Buses=[BMT156691984.1.2.3 BBT1404456.1.2.3.0],Conns=[delta wye],kvs=[13.8 0.22],kvas=[150.000000000 150.000000000],Taps=[1,1.000000000],%loadloss=1.127000000,%noloadloss=0.280000000
new transformer.295607 Phases=3,Windings=2,Buses=[BMT123994777.1.2.3 BBT1404799.1.2.3.0],Conns=[delta wye],kvs=[13.8 0.22],kvas=[150.000000000 150.000000000],Taps=[1,1.000000000],%loadloss=1.127000000,%noloadloss=0.280000000
new transformer.295670 Phases=3,Windings=2,Buses=[BMT123992663.1.2.3 BBT1406066.1.2.3.0],Conns=[delta wye],kvs=[13.8 0.22],kvas=[150.000000000 150.000000000],Taps=[1,1.000000000],%loadloss=1.127000000,%noloadloss=0.280000000
new transformer.295698 Phases=3,Windings=2,Buses=[BMT123992656.1.2.3 BBT1406339.1.2.3.0],Conns=[delta wye],kvs=[13.8 0.22],kvas=[225.000000000 225.000000000],Taps=[1,1.000000000],%loadloss=1.060000000,%noloadloss=0.248888000
new transformer.295789 Phases=3,Windings=2,Buses=[BMT123994805.1.2.3 BBT1407641.1.2.3.0],Conns=[delta wye],kvs=[13.8 0.22],kvas=[150.000000000 150.000000000],Taps=[1,1.000000000],%loadloss=1.127000000,%noloadloss=0.280000000
new transformer.295810 Phases=3,Windings=2,Buses=[BMT156691997.1.2.3 BBT1407746.1.2.3.0],Conns=[delta wye],kvs=[13.8 0.22],kvas=[100.000000000 100.000000000],Taps=[1,1.000000000],%loadloss=1.218000000,%noloadloss=0.335000000
new transformer.295964 Phases=3,Windings=2,Buses=[BMT123994798.1.2.3 BBT1409832.1.2.3.0],Conns=[delta wye],kvs=[13.8 0.22],kvas=[75.000000000 75.000000000],Taps=[1,1.000000000],%loadloss=1.340000000,%noloadloss=0.340000000
new transformer.296069 Phases=3,Windings=2,Buses=[BMT169919374.1.2.3 BBT1410994.1.2.3.0],Conns=[delta wye],kvs=[13.8 0.22],kvas=[75.000000000 75.000000000],Taps=[1,1.000000000],%loadloss=1.340000000,%noloadloss=0.340000000
new transformer.298939 Phases=3,Windings=2,Buses=[BMT124011633.1.2.3 BBT1451734.1.2.3.0],Conns=[delta wye],kvs=[13.8 0.22],kvas=[75.000000000 75.000000000],Taps=[1,1.000000000],%loadloss=1.340000000,%noloadloss=0.340000000
new transformer.298946 Phases=3,Windings=2,Buses=[BMT124012235.1.2.3 BBT1451916.1.2.3.0],Conns=[delta wye],kvs=[13.8 0.22],kvas=[45.000000000 45.000000000],Taps=[1,1.000000000],%loadloss=1.522000000,%noloadloss=0.377777000
new transformer.298953 Phases=3,Windings=2,Buses=[BMT152936828.1.2.3 BBT1452049.1.2.3.0],Conns=[delta wye],kvs=[13.8 0.22],kvas=[75.000000000 75.000000000],Taps=[1,1.000000000],%loadloss=1.340000000,%noloadloss=0.340000000
new transformer.298974 Phases=3,Windings=2,Buses=[BMT173262310.1.2.3 BBT1452210.1.2.3.0],Conns=[delta wye],kvs=[13.8 0.22],kvas=[75.000000000 75.000000000],Taps=[1,1.000000000],%loadloss=1.340000000,%noloadloss=0.340000000
new transformer.298995 Phases=3,Windings=2,Buses=[BMT124012256.1.2.3 BBT1452525.1.2.3.0],Conns=[delta wye],kvs=[13.8 0.22],kvas=[45.000000000 45.000000000],Taps=[1,1.000000000],%loadloss=1.522000000,%noloadloss=0.377777000
new transformer.299023 Phases=3,Windings=2,Buses=[BMT152936829.1.2.3 BBT1452756.1.2.3.0],Conns=[delta wye],kvs=[13.8 0.22],kvas=[100.000000000 100.000000000],Taps=[1,1.000000000],%loadloss=1.218000000,%noloadloss=0.335000000
new transformer.299058 Phases=3,Windings=2,Buses=[BMT152936830.1.2.3 BBT1453162.1.2.3.0],Conns=[delta wye],kvs=[13.8 0.22],kvas=[75.000000000 75.000000000],Taps=[1,1.000000000],%loadloss=1.340000000,%noloadloss=0.340000000
new transformer.299114 Phases=3,Windings=2,Buses=[BMT124012382.1.2.3 BBT1453505.1.2.3.0],Conns=[delta wye],kvs=[13.8 0.22],kvas=[45.000000000 45.000000000],Taps=[1,1.000000000],%loadloss=1.522000000,%noloadloss=0.377777000
new transformer.299191 Phases=3,Windings=2,Buses=[BMT124012396.1.2.3 BBT1454450.1.2.3.0],Conns=[delta wye],kvs=[13.8 0.22],kvas=[150.000000000 150.000000000],Taps=[1,1.000000000],%loadloss=1.127000000,%noloadloss=0.280000000
new transformer.299275 Phases=1,Windings=3,Buses=[BMT124012417.2 BBT1455185.1.0 BBT1455185.0.2],Conns=[wye wye wye],kvs=[7.967 0.12 0.12],kvas=[10.000000000 10.000000000 10.000000000],Taps=[1,1.000000000,1.000000000],%loadloss=1.800000000,%noloadloss=0.450000000
new transformer.299310 Phases=1,Windings=3,Buses=[BMT124012424.2 BBT1455465.1.0 BBT1455465.0.2],Conns=[wye wye wye],kvs=[7.967 0.12 0.12],kvas=[35.000000000 35.000000000 35.000000000],Taps=[1,1.000000000,1.000000000],%loadloss=1.293000000,%noloadloss=0.342857000
new transformer.358537 Phases=3,Windings=2,Buses=[BMT170891937.1.2.3 BBT1683742.1.2.3.0],Conns=[delta wye],kvs=[13.8 0.22],kvas=[75.000000000 75.000000000],Taps=[1,1.000000000],%loadloss=1.340000000,%noloadloss=0.340000000
new transformer.367574 Phases=3,Windings=2,Buses=[BMT171628486.1.2.3 BBT1719687.1.2.3.0],Conns=[delta wye],kvs=[13.8 0.22],kvas=[75.000000000 75.000000000],Taps=[1,1.000000000],%loadloss=1.340000000,%noloadloss=0.340000000
new transformer.372628 Phases=3,Windings=2,Buses=[BMT161617242.1.2.3 BBT1732469.1.2.3.0],Conns=[delta wye],kvs=[13.8 0.22],kvas=[75.000000000 75.000000000],Taps=[1,1.000000000],%loadloss=1.340000000,%noloadloss=0.340000000
new transformer.372663 Phases=3,Windings=2,Buses=[BMT124011689.1.2.3 BBT1732539.1.2.3.0],Conns=[delta wye],kvs=[13.8 0.22],kvas=[45.000000000 45.000000000],Taps=[1,1.000000000],%loadloss=1.522000000,%noloadloss=0.377777000
new transformer.375064 Phases=3,Windings=2,Buses=[BMT171628487.1.2.3 BBT1738832.1.2.3.0],Conns=[delta wye],kvs=[13.8 0.22],kvas=[45.000000000 45.000000000],Taps=[1,1.000000000],%loadloss=1.522000000,%noloadloss=0.377777000
new transformer.381868 Phases=1,Windings=3,Buses=[BMT170892313.1 BBT1760644.1.0 BBT1760644.0.2],Conns=[wye wye wye],kvs=[7.967 0.12 0.12],kvas=[15.000000000 15.000000000 15.000000000],Taps=[1,1.000000000,1.000000000],%loadloss=1.600000000,%noloadloss=0.400000000
new transformer.381875 Phases=1,Windings=3,Buses=[BMT153289798.2 BBT1760658.1.0 BBT1760658.0.2],Conns=[wye wye wye],kvs=[7.967 0.12 0.12],kvas=[35.000000000 35.000000000 35.000000000],Taps=[1,1.000000000,1.000000000],%loadloss=1.293000000,%noloadloss=0.342857000
new transformer.381889 Phases=1,Windings=3,Buses=[BMT170892312.1 BBT1760686.1.0 BBT1760686.0.2],Conns=[wye wye wye],kvs=[7.967 0.12 0.12],kvas=[15.000000000 15.000000000 15.000000000],Taps=[1,1.000000000,1.000000000],%loadloss=1.600000000,%noloadloss=0.400000000
new transformer.385046 Phases=3,Windings=2,Buses=[BMT123995456.1.2.3 BBT1773419.1.2.3.0],Conns=[delta wye],kvs=[13.8 0.22],kvas=[75.000000000 75.000000000],Taps=[1,1.000000000],%loadloss=1.340000000,%noloadloss=0.340000000
new transformer.534958 Phases=3,Windings=2,Buses=[BMT169388310.1.2.3 BBT3106156.1.2.3.0],Conns=[delta wye],kvs=[13.8 0.22],kvas=[45.000000000 45.000000000],Taps=[1,1.000000000],%loadloss=1.522000000,%noloadloss=0.377777000
new transformer.534986 Phases=3,Windings=2,Buses=[BMT169388312.1.2.3 BBT3106856.1.2.3.0],Conns=[delta wye],kvs=[13.8 0.22],kvas=[75.000000000 75.000000000],Taps=[1,1.000000000],%loadloss=1.340000000,%noloadloss=0.340000000
new transformer.535084 Phases=3,Windings=2,Buses=[BMT169388316.1.2.3 BBT3107808.1.2.3.0],Conns=[delta wye],kvs=[13.8 0.22],kvas=[45.000000000 45.000000000],Taps=[1,1.000000000],%loadloss=1.522000000,%noloadloss=0.377777000
new transformer.535112 Phases=3,Windings=2,Buses=[BMT169388314.1.2.3 BBT3108109.1.2.3.0],Conns=[delta wye],kvs=[13.8 0.22],kvas=[45.000000000 45.000000000],Taps=[1,1.000000000],%loadloss=1.522000000,%noloadloss=0.377777000
new transformer.562426 Phases=1,Windings=3,Buses=[BMT171380506.2 BBT3280127.1.0 BBT3280127.0.2],Conns=[wye wye wye],kvs=[7.967 0.12 0.12],kvas=[35.000000000 35.000000000 35.000000000],Taps=[1,1.000000000,1.000000000],%loadloss=1.293000000,%noloadloss=0.342857000
new transformer.666313 Phases=1,Windings=3,Buses=[BMT170891929.1 BBT4499884.1.0 BBT4499884.0.2],Conns=[wye wye wye],kvs=[7.967 0.12 0.12],kvas=[5.000000000 5.000000000 5.000000000],Taps=[1,1.000000000,1.000000000],%loadloss=1.900000000,%noloadloss=0.600000000
new transformer.666320 Phases=3,Windings=2,Buses=[BMT170891936.1.2.3 BBT4499898.1.2.3.0],Conns=[delta wye],kvs=[13.8 0.22],kvas=[45.000000000 45.000000000],Taps=[1,1.000000000],%loadloss=1.522000000,%noloadloss=0.377777000
new transformer.666327 Phases=3,Windings=2,Buses=[BMT170891934.1.2.3 BBT4499912.1.2.3.0],Conns=[delta wye],kvs=[13.8 0.22],kvas=[75.000000000 75.000000000],Taps=[1,1.000000000],%loadloss=1.340000000,%noloadloss=0.340000000
new transformer.666334 Phases=3,Windings=2,Buses=[BMT170891933.1.2.3 BBT4499926.1.2.3.0],Conns=[delta wye],kvs=[13.8 0.22],kvas=[150.000000000 150.000000000],Taps=[1,1.000000000],%loadloss=1.127000000,%noloadloss=0.280000000
new transformer.675721 Phases=3,Windings=2,Buses=[BMT123994742.1.2.3 BBT5073751.1.2.3.0],Conns=[delta wye],kvs=[13.8 0.22],kvas=[150.000000000 150.000000000],Taps=[1,1.000000000],%loadloss=1.127000000,%noloadloss=0.280000000
new transformer.682728 Phases=3,Windings=2,Buses=[BMT160281535.1.2.3 BBT5440901.1.2.3.0],Conns=[delta wye],kvs=[13.8 0.22],kvas=[45.000000000 45.000000000],Taps=[1,1.000000000],%loadloss=1.522000000,%noloadloss=0.377777000
new transformer.297049 Phases=3,Windings=2,Buses=[BMT168238251.1.2.3 BBT1425176.1.2.3.0],Conns=[delta wye],kvs=[13.8 0.22],kvas=[45.000000000 45.000000000],Taps=[1,1.000000000],%loadloss=1.522000000,%noloadloss=0.377777000
new transformer.297133 Phases=3,Windings=2,Buses=[BMT168238255.1.2.3 BBT1426366.1.2.3.0],Conns=[delta wye],kvs=[13.8 0.22],kvas=[45.000000000 45.000000000],Taps=[1,1.000000000],%loadloss=1.522000000,%noloadloss=0.377777000
new transformer.297168 Phases=3,Windings=2,Buses=[BMT168238254.1.2.3 BBT1426898.1.2.3.0],Conns=[delta wye],kvs=[13.8 0.22],kvas=[45.000000000 45.000000000],Taps=[1,1.000000000],%loadloss=1.522000000,%noloadloss=0.377777000
new transformer.297245 Phases=3,Windings=2,Buses=[BMT148791816.1.2.3 BBT1428235.1.2.3.0],Conns=[delta wye],kvs=[13.8 0.22],kvas=[45.000000000 45.000000000],Taps=[1,1.000000000],%loadloss=1.522000000,%noloadloss=0.377777000
new transformer.297280 Phases=3,Windings=2,Buses=[BMT148791815.1.2.3 BBT1428809.1.2.3.0],Conns=[delta wye],kvs=[13.8 0.22],kvas=[45.000000000 45.000000000],Taps=[1,1.000000000],%loadloss=1.522000000,%noloadloss=0.377777000
...