2024_89_CemigReconfigurationCases/1_AlimsCemig/PMSU15/PMSU15SegmentosBT.dss
new line.1176515 bus1=BBT3433042.1.2.3.0,bus2=BBT1381811.1.2.3.0,Phases=3,Linecode=BT803_BT803_4_3_4,Length=0.010199000,Units=km
new line.1177817 bus1=BBT1378549.1.2.3.0,bus2=BBT1378542.1.2.3.0,Phases=3,Linecode=BT108_BT107_7_3_1,Length=0.036142000,Units=km
new line.1177824 bus1=BBT1378556.1.2.3.0,bus2=BBT1378549.1.2.3.0,Phases=3,Linecode=BT108_BT107_7_3_1,Length=0.041489000,Units=km
new line.1177831 bus1=BBT1378535.1.2.3.0,bus2=BBT1378556.1.2.3.0,Phases=3,Linecode=BT309_BT309_7_3_1,Length=0.000501000,Units=km
new line.1177838 bus1=BBT1378556.1.2.3.0,bus2=BBT1378563.1.2.3.0,Phases=3,Linecode=BT108_BT107_7_3_1,Length=0.042454000,Units=km
new line.1177852 bus1=BBT1380908.1.2.3.0,bus2=BBT1380950.1.2.3.0,Phases=3,Linecode=BT108_BT107_7_3_1,Length=0.013603000,Units=km
new line.1177887 bus1=BBT1378577.1.2.3.0,bus2=BBT1378598.1.2.3.0,Phases=3,Linecode=BT803_BT803_4_3_4,Length=0.008545000,Units=km
new line.1177894 bus1=BBT1378591.1.2.3.0,bus2=BBT1378584.1.2.3.0,Phases=3,Linecode=BT803_BT803_4_3_4,Length=0.034788000,Units=km
new line.1177901 bus1=BBT1378598.1.2.3.0,bus2=BBT1378591.1.2.3.0,Phases=3,Linecode=BT803_BT803_4_3_4,Length=0.033529000,Units=km
new line.1177908 bus1=BBT1378570.1.2.3.0,bus2=BBT1378605.1.2.3.0,Phases=3,Linecode=BT309_BT309_7_3_1,Length=0.000501000,Units=km
new line.1177915 bus1=BBT1378605.1.2.3.0,bus2=BBT1378612.1.2.3.0,Phases=3,Linecode=BT803_BT803_4_3_4,Length=0.038901000,Units=km
new line.1177929 bus1=BBT1378612.1.2.3.0,bus2=BBT1378619.1.2.3.0,Phases=3,Linecode=BT803_BT803_4_3_4,Length=0.040808000,Units=km
new line.1177936 bus1=BBT1378605.1.2.3.0,bus2=BBT1378577.1.2.3.0,Phases=3,Linecode=BT803_BT803_4_3_4,Length=0.031324000,Units=km
new line.1177950 bus1=BBT1378647.1.2.3.0,bus2=BBT1378640.1.2.3.0,Phases=3,Linecode=BT108_BT107_7_3_1,Length=0.021843000,Units=km
new line.1177957 bus1=BBT1378654.1.2.3.0,bus2=BBT1378661.1.2.3.0,Phases=3,Linecode=BT108_BT107_7_3_1,Length=0.021843000,Units=km
new line.1177964 bus1=BBT1378654.1.2.3.0,bus2=BBT1378647.1.2.3.0,Phases=3,Linecode=BT108_BT107_7_3_1,Length=0.018976000,Units=km
new line.1177971 bus1=BBT1378633.1.2.3.0,bus2=BBT1378654.1.2.3.0,Phases=3,Linecode=BT513_BT513_7_3_1,Length=0.000501000,Units=km
new line.1178776 bus1=BBT1386319.1.2.3.0,bus2=BBT1386312.1.2.3.0,Phases=3,Linecode=BT803_BT803_4_3_4,Length=0.027169000,Units=km
new line.1178783 bus1=BBT1386319.1.2.3.0,bus2=BBT1386368.1.2.3.0,Phases=3,Linecode=BT810_BT810_4_3_4,Length=0.030417000,Units=km
new line.1179623 bus1=BBT1380208.1.2.3.0,bus2=BBT1380215.1.2.3.0,Phases=3,Linecode=BT803_BT803_4_3_4,Length=0.027206000,Units=km
new line.1179630 bus1=BBT1380236.1.2.3.0,bus2=BBT1380222.1.2.3.0,Phases=3,Linecode=BT803_BT803_4_3_4,Length=0.028163000,Units=km
new line.1179637 bus1=BBT1380236.1.2.3.0,bus2=BBT1380229.1.2.3.0,Phases=3,Linecode=BT803_BT803_4_3_4,Length=0.006326000,Units=km
new line.1179644 bus1=BBT1380236.1.2.3.0,bus2=BBT1380250.1.2.3.0,Phases=3,Linecode=BT803_BT803_4_3_4,Length=0.023089000,Units=km
new line.1179651 bus1=BBT1380243.1.2.3.0,bus2=BBT1380236.1.2.3.0,Phases=3,Linecode=BT803_BT803_4_3_4,Length=0.005386000,Units=km
new line.1179658 bus1=BBT1380250.1.2.3.0,bus2=BBT1380257.1.2.3.0,Phases=3,Linecode=BT803_BT803_4_3_4,Length=0.034788000,Units=km
new line.1179665 bus1=BBT1380257.1.2.3.0,bus2=BBT1380208.1.2.3.0,Phases=3,Linecode=BT803_BT803_4_3_4,Length=0.030367000,Units=km
new line.1179672 bus1=BBT1380264.1.2.3.0,bus2=BBT5209327.1.2.3.0,Phases=3,Linecode=BT108_BT107_7_3_1,Length=0.019927000,Units=km
new line.1179679 bus1=BBT1380271.1.2.3.0,bus2=BBT1380264.1.2.3.0,Phases=3,Linecode=BT111_BT108_7_3_1,Length=0.047132000,Units=km
new line.1179686 bus1=BBT1380201.1.2.3.0,bus2=BBT1380271.1.2.3.0,Phases=3,Linecode=BT311_BT311_7_3_1,Length=0.000501000,Units=km
new line.1179693 bus1=BBT1380271.1.2.3.0,bus2=BBT1380278.1.2.3.0,Phases=3,Linecode=BT111_BT108_7_3_1,Length=0.034788000,Units=km
new line.1179700 bus1=BBT1380278.1.2.3.0,bus2=BBT1380285.1.2.3.0,Phases=3,Linecode=BT108_BT107_7_3_1,Length=0.033841000,Units=km
new line.1179707 bus1=BBT1380278.1.2.3.0,bus2=BBT1380943.1.2.3.0,Phases=3,Linecode=BT108_BT108_7_3_1,Length=0.013603000,Units=km
new line.1179714 bus1=BBT1380285.1.2.3.0,bus2=BBT1380292.1.2.3.0,Phases=3,Linecode=BT108_BT107_7_3_1,Length=0.036404000,Units=km
new line.1179721 bus1=BBT1380292.1.2.3.0,bus2=BBT1380299.1.2.3.0,Phases=3,Linecode=BT107_BT106_7_3_1,Length=0.034485000,Units=km
new line.1180330 bus1=BBT1380915.1.2.3.0,bus2=BBT1380908.1.2.3.0,Phases=3,Linecode=BT108_BT107_7_3_1,Length=0.040166000,Units=km
new line.1180337 bus1=BBT1380922.1.2.3.0,bus2=BBT1380915.1.2.3.0,Phases=3,Linecode=BT108_BT107_7_3_1,Length=0.043970000,Units=km
new line.1180344 bus1=BBT1380887.1.2.3.0,bus2=BBT1380922.1.2.3.0,Phases=3,Linecode=BT309_BT309_7_3_1,Length=0.000501000,Units=km
new line.1180351 bus1=BBT1380922.1.2.3.0,bus2=BBT1380929.1.2.3.0,Phases=3,Linecode=BT108_BT107_7_3_1,Length=0.032576000,Units=km
...